*SPEF "IEEE 1481-1998"
*DESIGN "ALU"
*DATE "Tue Jun 30 00:36:03 2026"
*VENDOR "Cadence Design Systems, Inc."
*PROGRAM "Innovus"
*VERSION "20.10-p004_1"
*DESIGN_FLOW "PIN_CAP NONE" "NAME_SCOPE LOCAL"
*DIVIDER /
*DELIMITER :
*BUS_DELIMITER []
*T_UNIT 1 NS
*C_UNIT 1 PF
*R_UNIT 1 OHM
*L_UNIT 1 HENRY

// MMMC spef file for corner 'default_rc_corner'

*NAME_MAP

*1 in1[7]
*2 in1[6]
*3 in1[5]
*4 in1[4]
*5 in1[3]
*6 in1[2]
*7 in1[1]
*8 in1[0]
*9 in2[7]
*10 in2[6]
*11 in2[5]
*12 in2[4]
*13 in2[3]
*14 in2[2]
*15 in2[1]
*16 in2[0]
*17 clk
*18 rst
*19 sel[3]
*20 sel[2]
*21 sel[1]
*22 sel[0]
*23 out1[7]
*24 out1[6]
*25 out1[5]
*26 out1[4]
*27 out1[3]
*28 out1[2]
*29 out1[1]
*30 out1[0]
*31 out2[7]
*32 out2[6]
*33 out2[5]
*34 out2[4]
*35 out2[3]
*36 out2[2]
*37 out2[1]
*38 out2[0]
*39 scan_en
*40 DFT_sdi_1
*41 DFT_sdo_1
*42 Y[7]
*43 Y[6]
*44 Y[5]
*45 Y[4]
*46 Y[3]
*47 Y[2]
*48 Y[1]
*49 Y[0]
*50 X[7]
*51 X[6]
*52 X[5]
*53 X[4]
*54 X[3]
*55 X[2]
*56 X[1]
*57 X[0]
*58 sel_ff[2]
*59 sel_ff[1]
*60 sel_ff[0]
*61 mul_78_39_n_0
*62 mul_78_39_n_1
*63 mul_78_39_n_2
*64 mul_78_39_n_3
*65 mul_78_39_n_4
*66 mul_78_39_n_5
*67 mul_78_39_n_6
*68 mul_78_39_n_7
*69 mul_78_39_n_8
*70 mul_78_39_n_9
*71 mul_78_39_n_10
*72 mul_78_39_n_11
*73 mul_78_39_n_12
*74 mul_78_39_n_13
*75 mul_78_39_n_14
*76 mul_78_39_n_15
*77 mul_78_39_n_16
*78 mul_78_39_n_18
*79 mul_78_39_n_19
*80 mul_78_39_n_20
*81 mul_78_39_n_21
*82 mul_78_39_n_22
*83 mul_78_39_n_23
*84 mul_78_39_n_24
*85 mul_78_39_n_25
*86 mul_78_39_n_26
*87 mul_78_39_n_27
*88 mul_78_39_n_28
*89 mul_78_39_n_29
*90 mul_78_39_n_30
*91 mul_78_39_n_31
*92 mul_78_39_n_32
*93 mul_78_39_n_33
*94 mul_78_39_n_34
*95 mul_78_39_n_35
*96 mul_78_39_n_36
*97 mul_78_39_n_37
*98 mul_78_39_n_38
*99 mul_78_39_n_39
*100 mul_78_39_n_40
*101 mul_78_39_n_41
*102 mul_78_39_n_42
*103 mul_78_39_n_43
*104 mul_78_39_n_44
*105 mul_78_39_n_45
*106 mul_78_39_n_46
*107 mul_78_39_n_47
*108 mul_78_39_n_48
*109 mul_78_39_n_49
*110 mul_78_39_n_50
*111 mul_78_39_n_51
*112 mul_78_39_n_52
*113 mul_78_39_n_53
*114 mul_78_39_n_54
*115 mul_78_39_n_55
*116 mul_78_39_n_56
*117 mul_78_39_n_57
*118 mul_78_39_n_58
*119 mul_78_39_n_59
*120 mul_78_39_n_60
*121 mul_78_39_n_61
*122 mul_78_39_n_62
*123 mul_78_39_n_63
*124 mul_78_39_n_64
*125 mul_78_39_n_65
*126 mul_78_39_n_66
*127 mul_78_39_n_67
*128 mul_78_39_n_68
*129 mul_78_39_n_69
*130 mul_78_39_n_70
*131 mul_78_39_n_71
*132 mul_78_39_n_72
*133 mul_78_39_n_74
*134 mul_78_39_n_75
*135 mul_78_39_n_76
*136 mul_78_39_n_77
*137 mul_78_39_n_78
*138 mul_78_39_n_79
*139 mul_78_39_n_80
*140 mul_78_39_n_81
*141 mul_78_39_n_82
*142 mul_78_39_n_83
*143 mul_78_39_n_84
*144 mul_78_39_n_85
*145 mul_78_39_n_86
*146 mul_78_39_n_87
*147 mul_78_39_n_88
*148 mul_78_39_n_89
*149 mul_78_39_n_90
*150 mul_78_39_n_91
*151 mul_78_39_n_92
*152 mul_78_39_n_93
*153 mul_78_39_n_94
*154 mul_78_39_n_95
*155 mul_78_39_n_96
*156 mul_78_39_n_97
*157 mul_78_39_n_98
*158 mul_78_39_n_99
*159 mul_78_39_n_100
*160 mul_78_39_n_101
*161 mul_78_39_n_102
*162 mul_78_39_n_103
*163 mul_78_39_n_104
*164 mul_78_39_n_105
*165 mul_78_39_n_106
*166 mul_78_39_n_107
*167 mul_78_39_n_108
*168 mul_78_39_n_109
*169 mul_78_39_n_110
*170 mul_78_39_n_111
*171 mul_78_39_n_112
*172 mul_78_39_n_113
*173 mul_78_39_n_114
*174 mul_78_39_n_115
*175 mul_78_39_n_116
*176 mul_78_39_n_117
*177 mul_78_39_n_118
*178 mul_78_39_n_119
*179 mul_78_39_n_120
*180 mul_78_39_n_121
*181 mul_78_39_n_122
*182 mul_78_39_n_123
*183 mul_78_39_n_124
*184 mul_78_39_n_125
*185 mul_78_39_n_126
*186 mul_78_39_n_127
*187 mul_78_39_n_128
*188 mul_78_39_n_129
*189 mul_78_39_n_130
*190 mul_78_39_n_131
*191 mul_78_39_n_132
*192 mul_78_39_n_133
*193 mul_78_39_n_134
*194 mul_78_39_n_135
*195 mul_78_39_n_136
*196 mul_78_39_n_137
*197 mul_78_39_n_138
*198 mul_78_39_n_139
*199 mul_78_39_n_140
*200 mul_78_39_n_141
*201 mul_78_39_n_142
*202 mul_78_39_n_143
*203 mul_78_39_n_144
*204 mul_78_39_n_145
*205 mul_78_39_n_146
*206 mul_78_39_n_147
*207 mul_78_39_n_148
*208 mul_78_39_n_149
*209 mul_78_39_n_150
*210 mul_78_39_n_151
*211 mul_78_39_n_152
*212 mul_78_39_n_153
*213 mul_78_39_n_154
*214 mul_78_39_n_155
*215 mul_78_39_n_156
*216 mul_78_39_n_157
*217 mul_78_39_n_158
*218 mul_78_39_n_159
*219 mul_78_39_n_160
*220 mul_78_39_n_161
*221 n_0
*222 n_1
*223 n_2
*224 n_3
*225 n_4
*226 n_6
*227 n_11
*228 n_12
*229 n_13
*230 n_16
*231 n_18
*232 n_19
*233 n_20
*234 n_21
*235 n_22
*236 n_23
*237 n_24
*238 n_25
*239 n_26
*240 n_27
*241 n_28
*242 n_29
*243 n_30
*244 n_31
*245 n_32
*246 n_33
*247 n_34
*248 n_35
*249 n_36
*250 n_37
*251 n_38
*252 n_39
*253 n_40
*254 n_41
*255 n_42
*256 n_43
*257 n_44
*258 n_45
*259 n_46
*260 n_47
*261 n_48
*262 n_49
*263 n_50
*264 n_51
*265 n_52
*266 n_53
*267 n_54
*268 n_55
*269 n_56
*270 n_57
*271 n_59
*272 n_60
*273 n_61
*274 n_62
*275 n_63
*276 n_64
*277 n_65
*278 n_66
*279 n_67
*280 n_68
*281 n_69
*282 n_70
*283 n_71
*284 n_72
*285 n_73
*286 n_74
*287 n_75
*288 n_76
*289 n_77
*290 n_78
*291 n_79
*292 n_80
*293 n_81
*294 n_82
*295 n_83
*296 n_84
*297 n_85
*298 n_86
*299 n_87
*300 n_88
*301 n_89
*302 n_90
*303 n_91
*304 n_92
*305 n_93
*306 n_94
*307 n_95
*308 n_96
*309 n_97
*310 n_98
*311 n_99
*312 n_100
*313 n_101
*314 n_102
*315 n_103
*316 n_104
*317 n_105
*318 n_106
*319 n_107
*320 n_108
*321 n_109
*322 n_110
*323 n_111
*324 n_112
*325 n_113
*326 n_114
*327 n_115
*328 n_116
*329 n_117
*330 n_118
*331 n_119
*332 n_120
*333 n_121
*334 n_122
*335 n_123
*336 n_124
*337 n_125
*338 n_126
*339 n_127
*340 n_128
*341 n_129
*342 n_130
*343 n_131
*344 n_132
*345 n_133
*346 n_134
*347 n_135
*348 n_136
*349 n_137
*350 n_138
*351 n_139
*352 n_140
*353 n_141
*354 n_142
*355 n_143
*356 n_144
*357 n_145
*358 n_146
*359 n_147
*360 n_148
*361 n_149
*362 n_150
*363 n_151
*364 n_152
*365 n_153
*366 n_154
*367 n_155
*368 n_156
*369 n_157
*370 n_158
*371 n_159
*372 n_160
*373 n_161
*374 n_162
*375 n_163
*376 n_164
*377 n_165
*378 n_166
*379 n_167
*380 n_168
*381 n_169
*382 n_170
*383 n_171
*384 n_172
*385 n_173
*386 n_174
*387 n_175
*388 n_176
*389 n_177
*390 n_178
*391 n_179
*392 n_180
*393 n_181
*394 n_182
*395 n_183
*396 n_184
*397 n_185
*398 n_186
*399 n_187
*400 n_188
*401 n_189
*402 n_190
*403 n_191
*404 n_192
*405 n_194
*406 n_195
*407 n_196
*408 n_198
*409 n_199
*410 n_200
*411 n_202
*412 n_203
*413 n_204
*414 n_205
*415 n_206
*416 n_207
*417 n_208
*418 n_209
*419 n_210
*420 n_211
*421 n_212
*422 n_213
*423 n_214
*424 n_215
*425 n_216
*426 n_217
*427 n_218
*428 n_219
*429 n_220
*430 n_221
*431 n_222
*432 n_223
*433 n_224
*434 n_225
*435 n_308
*436 n_309
*437 n_310
*438 n_311
*439 n_312
*440 n_313
*441 n_315
*442 n_316
*443 n_317
*444 rem_96_35_Y_div_84_31_n_0
*445 rem_96_35_Y_div_84_31_n_2
*446 rem_96_35_Y_div_84_31_n_3
*447 rem_96_35_Y_div_84_31_n_4
*448 rem_96_35_Y_div_84_31_n_5
*449 rem_96_35_Y_div_84_31_n_6
*450 rem_96_35_Y_div_84_31_n_7
*451 rem_96_35_Y_div_84_31_n_8
*452 rem_96_35_Y_div_84_31_n_9
*453 rem_96_35_Y_div_84_31_n_10
*454 rem_96_35_Y_div_84_31_n_11
*455 rem_96_35_Y_div_84_31_n_12
*456 rem_96_35_Y_div_84_31_n_13
*457 rem_96_35_Y_div_84_31_n_14
*458 rem_96_35_Y_div_84_31_n_15
*459 rem_96_35_Y_div_84_31_n_16
*460 rem_96_35_Y_div_84_31_n_17
*461 rem_96_35_Y_div_84_31_n_18
*462 rem_96_35_Y_div_84_31_n_19
*463 rem_96_35_Y_div_84_31_n_20
*464 rem_96_35_Y_div_84_31_n_21
*465 rem_96_35_Y_div_84_31_n_22
*466 rem_96_35_Y_div_84_31_n_23
*467 rem_96_35_Y_div_84_31_n_24
*468 rem_96_35_Y_div_84_31_n_25
*469 rem_96_35_Y_div_84_31_n_26
*470 rem_96_35_Y_div_84_31_n_27
*471 rem_96_35_Y_div_84_31_n_28
*472 rem_96_35_Y_div_84_31_n_29
*473 rem_96_35_Y_div_84_31_n_30
*474 rem_96_35_Y_div_84_31_n_31
*475 rem_96_35_Y_div_84_31_n_32
*476 rem_96_35_Y_div_84_31_n_33
*477 rem_96_35_Y_div_84_31_n_34
*478 rem_96_35_Y_div_84_31_n_35
*479 rem_96_35_Y_div_84_31_n_36
*480 rem_96_35_Y_div_84_31_n_37
*481 rem_96_35_Y_div_84_31_n_38
*482 rem_96_35_Y_div_84_31_n_39
*483 rem_96_35_Y_div_84_31_n_40
*484 rem_96_35_Y_div_84_31_n_41
*485 rem_96_35_Y_div_84_31_n_42
*486 rem_96_35_Y_div_84_31_n_43
*487 rem_96_35_Y_div_84_31_n_44
*488 rem_96_35_Y_div_84_31_n_45
*489 rem_96_35_Y_div_84_31_n_46
*490 rem_96_35_Y_div_84_31_n_47
*491 rem_96_35_Y_div_84_31_n_48
*492 rem_96_35_Y_div_84_31_n_49
*493 rem_96_35_Y_div_84_31_n_50
*494 rem_96_35_Y_div_84_31_n_51
*495 rem_96_35_Y_div_84_31_n_53
*496 rem_96_35_Y_div_84_31_n_54
*497 rem_96_35_Y_div_84_31_n_55
*498 rem_96_35_Y_div_84_31_n_56
*499 rem_96_35_Y_div_84_31_n_57
*500 rem_96_35_Y_div_84_31_n_58
*501 rem_96_35_Y_div_84_31_n_59
*502 rem_96_35_Y_div_84_31_n_61
*503 rem_96_35_Y_div_84_31_n_62
*504 rem_96_35_Y_div_84_31_n_63
*505 rem_96_35_Y_div_84_31_n_64
*506 rem_96_35_Y_div_84_31_n_65
*507 rem_96_35_Y_div_84_31_n_67
*508 rem_96_35_Y_div_84_31_n_69
*509 rem_96_35_Y_div_84_31_n_70
*510 rem_96_35_Y_div_84_31_n_71
*511 rem_96_35_Y_div_84_31_n_72
*512 rem_96_35_Y_div_84_31_n_73
*513 rem_96_35_Y_div_84_31_n_75
*514 rem_96_35_Y_div_84_31_n_76
*515 rem_96_35_Y_div_84_31_n_77
*516 rem_96_35_Y_div_84_31_n_78
*517 rem_96_35_Y_div_84_31_n_79
*518 rem_96_35_Y_div_84_31_n_80
*519 rem_96_35_Y_div_84_31_n_81
*520 rem_96_35_Y_div_84_31_n_82
*521 rem_96_35_Y_div_84_31_n_83
*522 rem_96_35_Y_div_84_31_n_84
*523 rem_96_35_Y_div_84_31_n_85
*524 rem_96_35_Y_div_84_31_n_86
*525 rem_96_35_Y_div_84_31_n_87
*526 rem_96_35_Y_div_84_31_n_88
*527 rem_96_35_Y_div_84_31_n_89
*528 rem_96_35_Y_div_84_31_n_90
*529 rem_96_35_Y_div_84_31_n_91
*530 rem_96_35_Y_div_84_31_n_92
*531 rem_96_35_Y_div_84_31_n_93
*532 rem_96_35_Y_div_84_31_n_94
*533 rem_96_35_Y_div_84_31_n_95
*534 rem_96_35_Y_div_84_31_n_96
*535 rem_96_35_Y_div_84_31_n_98
*536 rem_96_35_Y_div_84_31_n_99
*537 rem_96_35_Y_div_84_31_n_100
*538 rem_96_35_Y_div_84_31_n_101
*539 rem_96_35_Y_div_84_31_n_102
*540 rem_96_35_Y_div_84_31_n_103
*541 rem_96_35_Y_div_84_31_n_104
*542 rem_96_35_Y_div_84_31_n_105
*543 rem_96_35_Y_div_84_31_n_106
*544 rem_96_35_Y_div_84_31_n_108
*545 rem_96_35_Y_div_84_31_n_109
*546 rem_96_35_Y_div_84_31_n_110
*547 rem_96_35_Y_div_84_31_n_111
*548 rem_96_35_Y_div_84_31_n_112
*549 rem_96_35_Y_div_84_31_n_113
*550 rem_96_35_Y_div_84_31_n_114
*551 rem_96_35_Y_div_84_31_n_115
*552 rem_96_35_Y_div_84_31_n_116
*553 rem_96_35_Y_div_84_31_n_118
*554 rem_96_35_Y_div_84_31_n_119
*555 rem_96_35_Y_div_84_31_n_120
*556 rem_96_35_Y_div_84_31_n_121
*557 rem_96_35_Y_div_84_31_n_122
*558 rem_96_35_Y_div_84_31_n_123
*559 rem_96_35_Y_div_84_31_n_124
*560 rem_96_35_Y_div_84_31_n_125
*561 rem_96_35_Y_div_84_31_n_127
*562 rem_96_35_Y_div_84_31_n_128
*563 rem_96_35_Y_div_84_31_n_129
*564 rem_96_35_Y_div_84_31_n_130
*565 rem_96_35_Y_div_84_31_n_132
*566 rem_96_35_Y_div_84_31_n_133
*567 rem_96_35_Y_div_84_31_n_134
*568 rem_96_35_Y_div_84_31_n_135
*569 rem_96_35_Y_div_84_31_n_136
*570 rem_96_35_Y_div_84_31_n_137
*571 rem_96_35_Y_div_84_31_n_138
*572 rem_96_35_Y_div_84_31_n_139
*573 rem_96_35_Y_div_84_31_n_140
*574 rem_96_35_Y_div_84_31_n_141
*575 rem_96_35_Y_div_84_31_n_142
*576 rem_96_35_Y_div_84_31_n_143
*577 rem_96_35_Y_div_84_31_n_144
*578 rem_96_35_Y_div_84_31_n_145
*579 rem_96_35_Y_div_84_31_n_146
*580 rem_96_35_Y_div_84_31_n_147
*581 rem_96_35_Y_div_84_31_n_148
*582 rem_96_35_Y_div_84_31_n_149
*583 rem_96_35_Y_div_84_31_n_150
*584 rem_96_35_Y_div_84_31_n_152
*585 rem_96_35_Y_div_84_31_n_153
*586 rem_96_35_Y_div_84_31_n_154
*587 rem_96_35_Y_div_84_31_n_155
*588 rem_96_35_Y_div_84_31_n_156
*589 rem_96_35_Y_div_84_31_n_157
*590 rem_96_35_Y_div_84_31_n_158
*591 rem_96_35_Y_div_84_31_n_159
*592 rem_96_35_Y_div_84_31_n_161
*593 rem_96_35_Y_div_84_31_n_162
*594 rem_96_35_Y_div_84_31_n_164
*595 rem_96_35_Y_div_84_31_n_165
*596 rem_96_35_Y_div_84_31_n_166
*597 rem_96_35_Y_div_84_31_n_167
*598 rem_96_35_Y_div_84_31_n_168
*599 rem_96_35_Y_div_84_31_n_169
*600 rem_96_35_Y_div_84_31_n_170
*601 rem_96_35_Y_div_84_31_n_171
*602 rem_96_35_Y_div_84_31_n_172
*603 rem_96_35_Y_div_84_31_n_173
*604 rem_96_35_Y_div_84_31_n_175
*605 rem_96_35_Y_div_84_31_n_176
*606 rem_96_35_Y_div_84_31_n_177
*607 rem_96_35_Y_div_84_31_n_178
*608 rem_96_35_Y_div_84_31_n_179
*609 rem_96_35_Y_div_84_31_n_180
*610 rem_96_35_Y_div_84_31_n_181
*611 rem_96_35_Y_div_84_31_n_182
*612 rem_96_35_Y_div_84_31_n_183
*613 rem_96_35_Y_div_84_31_n_184
*614 rem_96_35_Y_div_84_31_n_185
*615 rem_96_35_Y_div_84_31_n_186
*616 rem_96_35_Y_div_84_31_n_187
*617 rem_96_35_Y_div_84_31_n_188
*618 rem_96_35_Y_div_84_31_n_189
*619 rem_96_35_Y_div_84_31_n_190
*620 rem_96_35_Y_div_84_31_n_191
*621 rem_96_35_Y_div_84_31_n_192
*622 rem_96_35_Y_div_84_31_n_193
*623 rem_96_35_Y_div_84_31_n_194
*624 rem_96_35_Y_div_84_31_n_195
*625 rem_96_35_Y_div_84_31_n_196
*626 rem_96_35_Y_div_84_31_n_197
*627 rem_96_35_Y_div_84_31_n_198
*628 rem_96_35_Y_div_84_31_n_199
*629 rem_96_35_Y_div_84_31_n_200
*630 rem_96_35_Y_div_84_31_n_201
*631 rem_96_35_Y_div_84_31_n_202
*632 rem_96_35_Y_div_84_31_n_203
*633 rem_96_35_Y_div_84_31_n_204
*634 rem_96_35_Y_div_84_31_n_205
*635 rem_96_35_Y_div_84_31_n_206
*636 rem_96_35_Y_div_84_31_n_207
*637 rem_96_35_Y_div_84_31_n_208
*638 rem_96_35_Y_div_84_31_n_209
*639 rem_96_35_Y_div_84_31_n_210
*640 rem_96_35_Y_div_84_31_n_211
*641 rem_96_35_Y_div_84_31_n_212
*642 rem_96_35_Y_div_84_31_n_213
*643 rem_96_35_Y_div_84_31_n_214
*644 rem_96_35_Y_div_84_31_n_215
*645 rem_96_35_Y_div_84_31_n_216
*646 rem_96_35_Y_div_84_31_n_217
*647 rem_96_35_Y_div_84_31_n_218
*648 rem_96_35_Y_div_84_31_n_219
*649 rem_96_35_Y_div_84_31_n_220
*650 rem_96_35_Y_div_84_31_n_221
*651 rem_96_35_Y_div_84_31_n_222
*652 rem_96_35_Y_div_84_31_n_223
*653 rem_96_35_Y_div_84_31_n_224
*654 rem_96_35_Y_div_84_31_n_225
*655 rem_96_35_Y_div_84_31_n_226
*656 rem_96_35_Y_div_84_31_n_227
*657 rem_96_35_Y_div_84_31_n_228
*658 rem_96_35_Y_div_84_31_n_229
*659 rem_96_35_Y_div_84_31_n_230
*660 rem_96_35_Y_div_84_31_n_231
*661 rem_96_35_Y_div_84_31_n_232
*662 rem_96_35_Y_div_84_31_n_233
*663 rem_96_35_Y_div_84_31_n_234
*664 rem_96_35_Y_div_84_31_n_235
*665 rem_96_35_Y_div_84_31_n_237
*666 rem_96_35_Y_div_84_31_n_238
*667 rem_96_35_Y_div_84_31_n_239
*668 rem_96_35_Y_div_84_31_n_240
*669 rem_96_35_Y_div_84_31_n_241
*670 rem_96_35_Y_div_84_31_n_242
*671 rem_96_35_Y_div_84_31_n_243
*672 rem_96_35_Y_div_84_31_n_244
*673 rem_96_35_Y_div_84_31_n_245
*674 rem_96_35_Y_div_84_31_n_247
*675 rem_96_35_Y_div_84_31_n_248
*676 rem_96_35_Y_div_84_31_n_249
*677 rem_96_35_Y_div_84_31_n_251
*678 rem_96_35_Y_div_84_31_n_252
*679 rem_96_35_Y_div_84_31_n_253
*680 rem_96_35_Y_div_84_31_n_254
*681 rem_96_35_Y_div_84_31_n_255
*682 rem_96_35_Y_div_84_31_n_256
*683 rem_96_35_Y_div_84_31_n_257
*684 rem_96_35_Y_div_84_31_n_258
*685 rem_96_35_Y_div_84_31_n_259
*686 rem_96_35_Y_div_84_31_n_260
*687 rem_96_35_Y_div_84_31_n_261
*688 rem_96_35_Y_div_84_31_n_262
*689 rem_96_35_Y_div_84_31_n_264
*690 rem_96_35_Y_div_84_31_n_265
*691 rem_96_35_Y_div_84_31_n_266
*692 rem_96_35_Y_div_84_31_n_267
*693 rem_96_35_Y_div_84_31_n_268
*694 rem_96_35_Y_div_84_31_n_269
*695 rem_96_35_Y_div_84_31_n_270
*696 rem_96_35_Y_div_84_31_n_272
*697 rem_96_35_Y_div_84_31_n_273
*698 rem_96_35_Y_div_84_31_n_275
*699 rem_96_35_Y_div_84_31_n_276
*700 rem_96_35_Y_div_84_31_n_277
*701 rem_96_35_Y_div_84_31_n_278
*702 rem_96_35_Y_div_84_31_n_279
*703 g7635__2398
*704 g7636__5107
*705 g7642__6260
*706 g7645__4319
*707 g7646__8428
*708 g7647__5526
*709 g7648__6783
*710 g7650__3680
*711 g7651__1617
*712 g7652__2802
*713 g7653__1705
*714 g7654__5122
*715 g7655__8246
*716 g7656__7098
*717 g7657__6131
*718 g7658__1881
*719 g7659__5115
*720 g7660__7482
*721 g7661__4733
*722 g7663__6161
*723 g7664__9315
*724 g7665__9945
*725 g7666__2883
*726 g7667__2346
*727 g7668__1666
*728 g7669__7410
*729 g7671__6417
*730 g7672__5477
*731 g7673__2398
*732 g7674__5107
*733 g7676__6260
*734 g7677__4319
*735 g7678__8428
*736 g7680__5526
*737 g7681__6783
*738 g7682__3680
*739 g7683__1617
*740 g7684__2802
*741 g7686__1705
*742 g7687__5122
*743 g7688__8246
*744 g7689__7098
*745 g7690__6131
*746 g7691__1881
*747 g7692__5115
*748 g7693__7482
*749 g7694__4733
*750 g7695__6161
*751 g7696__9315
*752 g7697
*753 g7698__9945
*754 g7699__2883
*755 g7700__2346
*756 g7701__1666
*757 g7702__7410
*758 g7703__6417
*759 g7704__5477
*760 g7705__2398
*761 g7706__5107
*762 g7707__6260
*763 g7708__4319
*764 g7709__8428
*765 g7710__5526
*766 g7711__6783
*767 g7712__3680
*768 g7713__1617
*769 g7714__2802
*770 g7715__1705
*771 g7716__5122
*772 g7717__8246
*773 g7718__7098
*774 g7719__6131
*775 g7720__1881
*776 g7721__5115
*777 g7722__7482
*778 g7723__4733
*779 g7724__6161
*780 g7725__9315
*781 g7726__9945
*782 g7727__2883
*783 g7728__2346
*784 g7729__1666
*785 g7730__7410
*786 g7731__6417
*787 g7732__5477
*788 g7733__2398
*789 g7734__5107
*790 g7735__6260
*791 g7736__4319
*792 g7737__8428
*793 g7738__5526
*794 g7739__6783
*795 g7741__3680
*796 g7742
*797 g7743
*798 g7744
*799 g7746
*800 g7747__1617
*801 g7748__2802
*802 g7749__1705
*803 g7750__5122
*804 g7751__8246
*805 g7753__7098
*806 g7754__6131
*807 g7755__1881
*808 g7756__5115
*809 g7757__7482
*810 g7758__4733
*811 g7759__6161
*812 g7760__9315
*813 g7761__9945
*814 g7762__2883
*815 g7763__2346
*816 g7764__1666
*817 g7765__7410
*818 g7766__6417
*819 g7767__5477
*820 g7768__2398
*821 g7769__5107
*822 g7770__6260
*823 g7771__4319
*824 g7772__8428
*825 g7773__5526
*826 g7774__6783
*827 g7775__3680
*828 g7776__1617
*829 g7778__1705
*830 g7779
*831 g7780
*832 g7781__5122
*833 g7782__8246
*834 g7783__7098
*835 g7784__6131
*836 g7785__1881
*837 g7786__5115
*838 g7787__7482
*839 g7788__4733
*840 g7789__6161
*841 g7790
*842 g7792
*843 g7793__9315
*844 g7795__9945
*845 g7796__2883
*846 g7797__2346
*847 g7798__1666
*848 g7800__7410
*849 g7801__6417
*850 g7803
*851 g7804
*852 g7823
*853 g7824
*854 g7825__5477
*855 g7826__2398
*856 g7827__5107
*857 g7828__6260
*858 g7829__4319
*859 g7830__8428
*860 g7831__5526
*861 g7832__6783
*862 g7833__3680
*863 g7834__1617
*864 g7835__2802
*865 g7836__1705
*866 g7837__5122
*867 g7838__8246
*868 g7839__7098
*869 g7840__6131
*870 g7848
*871 g7851
*872 g7852
*873 g7854
*874 g7855
*875 g7859
*876 g7860
*877 g7861
*878 g2__1881
*879 g7862__5115
*880 g7863__7482
*881 g7864__4733
*882 mul_78_39_cdnfadd_2__6161
*883 mul_78_39_cdnfadd_003_0__9315
*884 mul_78_39_cdnfadd_3__9945
*885 mul_78_39_cdnfadd_004_0__2883
*886 mul_78_39_cdnfadd_004_1__2346
*887 mul_78_39_cdnfadd_4__1666
*888 mul_78_39_cdnfadd_005_0__7410
*889 mul_78_39_cdnfadd_005_1__6417
*890 mul_78_39_cdnfadd_005_2__5477
*891 mul_78_39_cdnfadd_5__2398
*892 mul_78_39_cdnfadd_006_0__5107
*893 mul_78_39_cdnfadd_006_1__6260
*894 mul_78_39_cdnfadd_006_2__4319
*895 mul_78_39_cdnfadd_006_3__8428
*896 mul_78_39_cdnfadd_6__5526
*897 mul_78_39_cdnfadd_007_0__6783
*898 mul_78_39_cdnfadd_007_1__3680
*899 mul_78_39_cdnfadd_007_2__1617
*900 mul_78_39_cdnfadd_007_3__2802
*901 mul_78_39_cdnfadd_007_4__1705
*902 mul_78_39_cdnfadd_7__5122
*903 mul_78_39_cdnfadd_008_0__8246
*904 mul_78_39_cdnfadd_008_1__7098
*905 mul_78_39_cdnfadd_008_2__6131
*906 mul_78_39_cdnfadd_008_3__1881
*907 mul_78_39_cdnfadd_008_4__5115
*908 mul_78_39_cdnfadd_8__7482
*909 mul_78_39_cdnfadd_009_0__4733
*910 mul_78_39_cdnfadd_009_1__6161
*911 mul_78_39_cdnfadd_009_2__9315
*912 mul_78_39_cdnfadd_009_3__9945
*913 mul_78_39_cdnfadd_009_4__2883
*914 mul_78_39_cdnfadd_9__2346
*915 mul_78_39_cdnfadd_010_0__1666
*916 mul_78_39_cdnfadd_010_1__7410
*917 mul_78_39_cdnfadd_010_2__6417
*918 mul_78_39_cdnfadd_010_3__5477
*919 mul_78_39_cdnfadd_10__2398
*920 mul_78_39_cdnfadd_011_0__5107
*921 mul_78_39_cdnfadd_011_1__6260
*922 mul_78_39_cdnfadd_011_2__4319
*923 mul_78_39_cdnfadd_11__8428
*924 mul_78_39_cdnfadd_012_0__5526
*925 mul_78_39_cdnfadd_012_1__6783
*926 mul_78_39_cdnfadd_12__3680
*927 mul_78_39_cdnfadd_013_0__1617
*928 mul_78_39_cdnfadd_13__2802
*929 mul_78_39_cdnfadd_14__1705
*930 mul_78_39_g410__5122
*931 mul_78_39_g411__8246
*932 mul_78_39_g412__7098
*933 mul_78_39_g413__6131
*934 mul_78_39_g414__1881
*935 mul_78_39_g415__5115
*936 mul_78_39_g416__7482
*937 mul_78_39_g417__4733
*938 mul_78_39_g418__6161
*939 mul_78_39_g419__9315
*940 mul_78_39_g420__9945
*941 mul_78_39_g421__2883
*942 mul_78_39_g422__2346
*943 mul_78_39_g423__1666
*944 mul_78_39_g424__7410
*945 mul_78_39_g425__6417
*946 mul_78_39_g426__5477
*947 mul_78_39_g427__2398
*948 mul_78_39_g428__5107
*949 mul_78_39_g429__6260
*950 mul_78_39_g430__4319
*951 mul_78_39_g431__8428
*952 mul_78_39_g432__5526
*953 mul_78_39_g433__6783
*954 mul_78_39_g434__3680
*955 mul_78_39_g435__1617
*956 mul_78_39_g436__2802
*957 mul_78_39_g437__1705
*958 mul_78_39_g438__5122
*959 mul_78_39_g439__8246
*960 mul_78_39_g440__7098
*961 mul_78_39_g441__6131
*962 mul_78_39_g442__1881
*963 mul_78_39_g443__5115
*964 mul_78_39_g444__7482
*965 mul_78_39_g445__4733
*966 mul_78_39_g446__6161
*967 mul_78_39_g447__9315
*968 mul_78_39_g448__9945
*969 mul_78_39_g449__2883
*970 mul_78_39_g450__2346
*971 mul_78_39_g451__1666
*972 mul_78_39_g452__7410
*973 mul_78_39_g453__6417
*974 mul_78_39_g454__5477
*975 mul_78_39_g455__2398
*976 mul_78_39_g456__5107
*977 mul_78_39_g457__6260
*978 mul_78_39_g458__4319
*979 mul_78_39_g459__8428
*980 mul_78_39_g460__5526
*981 mul_78_39_g461__6783
*982 mul_78_39_g462__3680
*983 mul_78_39_g463__1617
*984 mul_78_39_g464__2802
*985 mul_78_39_g465__1705
*986 mul_78_39_g466__5122
*987 mul_78_39_g467__8246
*988 mul_78_39_g468__7098
*989 mul_78_39_g469__6131
*990 mul_78_39_g470__1881
*991 mul_78_39_g471__5115
*992 mul_78_39_g472__7482
*993 mul_78_39_g473__4733
*994 mul_78_39_g474__6161
*995 mul_78_39_g475__9315
*996 mul_78_39_g476__9945
*997 mul_78_39_g477__2883
*998 mul_78_39_g478__2346
*999 mul_78_39_g479__1666
*1000 mul_78_39_g480__7410
*1001 mul_78_39_g481__6417
*1002 mul_78_39_g482__5477
*1003 mul_78_39_g483__2398
*1004 mul_78_39_g484__5107
*1005 mul_78_39_g485__6260
*1006 mul_78_39_g486__4319
*1007 mul_78_39_g487__8428
*1008 mul_78_39_g488__5526
*1009 mul_78_39_g489__6783
*1010 rem_96_35_Y_div_84_31_g3653__3680
*1011 rem_96_35_Y_div_84_31_g3654__1617
*1012 rem_96_35_Y_div_84_31_g3655__2802
*1013 rem_96_35_Y_div_84_31_g3657__5122
*1014 rem_96_35_Y_div_84_31_g3658__8246
*1015 rem_96_35_Y_div_84_31_g3659__7098
*1016 rem_96_35_Y_div_84_31_g3660__6131
*1017 rem_96_35_Y_div_84_31_g3661__1881
*1018 rem_96_35_Y_div_84_31_g3662__5115
*1019 rem_96_35_Y_div_84_31_g3663__7482
*1020 rem_96_35_Y_div_84_31_g3665__6161
*1021 rem_96_35_Y_div_84_31_g3666__9315
*1022 rem_96_35_Y_div_84_31_g3667__9945
*1023 rem_96_35_Y_div_84_31_g3668__2883
*1024 rem_96_35_Y_div_84_31_g3669__2346
*1025 rem_96_35_Y_div_84_31_g3670__1666
*1026 rem_96_35_Y_div_84_31_g3671__7410
*1027 rem_96_35_Y_div_84_31_g3672__6417
*1028 rem_96_35_Y_div_84_31_g3673__5477
*1029 rem_96_35_Y_div_84_31_g3674__2398
*1030 rem_96_35_Y_div_84_31_g3676__6260
*1031 rem_96_35_Y_div_84_31_g3677__4319
*1032 rem_96_35_Y_div_84_31_g3678__8428
*1033 rem_96_35_Y_div_84_31_g3679__5526
*1034 rem_96_35_Y_div_84_31_g3680__6783
*1035 rem_96_35_Y_div_84_31_g3681__3680
*1036 rem_96_35_Y_div_84_31_g3682__1617
*1037 rem_96_35_Y_div_84_31_g3683__2802
*1038 rem_96_35_Y_div_84_31_g3684__1705
*1039 rem_96_35_Y_div_84_31_g3685__5122
*1040 rem_96_35_Y_div_84_31_g3686__8246
*1041 rem_96_35_Y_div_84_31_g3687__7098
*1042 rem_96_35_Y_div_84_31_g3688__6131
*1043 rem_96_35_Y_div_84_31_g3689__1881
*1044 rem_96_35_Y_div_84_31_g3690__5115
*1045 rem_96_35_Y_div_84_31_g3691__7482
*1046 rem_96_35_Y_div_84_31_g3693__6161
*1047 rem_96_35_Y_div_84_31_g3694__9315
*1048 rem_96_35_Y_div_84_31_g3695
*1049 rem_96_35_Y_div_84_31_g3696__9945
*1050 rem_96_35_Y_div_84_31_g3697__2883
*1051 rem_96_35_Y_div_84_31_g3698
*1052 rem_96_35_Y_div_84_31_g3699__2346
*1053 rem_96_35_Y_div_84_31_g3700
*1054 rem_96_35_Y_div_84_31_g3701__1666
*1055 rem_96_35_Y_div_84_31_g3702__7410
*1056 rem_96_35_Y_div_84_31_g3703__6417
*1057 rem_96_35_Y_div_84_31_g3704
*1058 rem_96_35_Y_div_84_31_g3705__5477
*1059 rem_96_35_Y_div_84_31_g3706__2398
*1060 rem_96_35_Y_div_84_31_g3707__5107
*1061 rem_96_35_Y_div_84_31_g3708__6260
*1062 rem_96_35_Y_div_84_31_g3709__4319
*1063 rem_96_35_Y_div_84_31_g3710
*1064 rem_96_35_Y_div_84_31_g3711__8428
*1065 rem_96_35_Y_div_84_31_g3712__5526
*1066 rem_96_35_Y_div_84_31_g3713__6783
*1067 rem_96_35_Y_div_84_31_g3714__3680
*1068 rem_96_35_Y_div_84_31_g3715__1617
*1069 rem_96_35_Y_div_84_31_g3716__2802
*1070 rem_96_35_Y_div_84_31_g3717__1705
*1071 rem_96_35_Y_div_84_31_g3718__5122
*1072 rem_96_35_Y_div_84_31_g3719__8246
*1073 rem_96_35_Y_div_84_31_g3720__7098
*1074 rem_96_35_Y_div_84_31_g3721__6131
*1075 rem_96_35_Y_div_84_31_g3722__1881
*1076 rem_96_35_Y_div_84_31_g3723__5115
*1077 rem_96_35_Y_div_84_31_g3724__7482
*1078 rem_96_35_Y_div_84_31_g3725__4733
*1079 rem_96_35_Y_div_84_31_g3726__6161
*1080 rem_96_35_Y_div_84_31_g3727__9315
*1081 rem_96_35_Y_div_84_31_g3728__9945
*1082 rem_96_35_Y_div_84_31_g3729__2883
*1083 rem_96_35_Y_div_84_31_g3730__2346
*1084 rem_96_35_Y_div_84_31_g3731__1666
*1085 rem_96_35_Y_div_84_31_g3732__7410
*1086 rem_96_35_Y_div_84_31_g3733__6417
*1087 rem_96_35_Y_div_84_31_g3734__5477
*1088 rem_96_35_Y_div_84_31_g3735__2398
*1089 rem_96_35_Y_div_84_31_g3736__5107
*1090 rem_96_35_Y_div_84_31_g3737
*1091 rem_96_35_Y_div_84_31_g3738__6260
*1092 rem_96_35_Y_div_84_31_g3739
*1093 rem_96_35_Y_div_84_31_g3740__4319
*1094 rem_96_35_Y_div_84_31_g3741
*1095 rem_96_35_Y_div_84_31_g3742__8428
*1096 rem_96_35_Y_div_84_31_g3743
*1097 rem_96_35_Y_div_84_31_g3744__5526
*1098 rem_96_35_Y_div_84_31_g3745__6783
*1099 rem_96_35_Y_div_84_31_g3746__3680
*1100 rem_96_35_Y_div_84_31_g3747__1617
*1101 rem_96_35_Y_div_84_31_g3748__2802
*1102 rem_96_35_Y_div_84_31_g3749__1705
*1103 rem_96_35_Y_div_84_31_g3750__5122
*1104 rem_96_35_Y_div_84_31_g3751__8246
*1105 rem_96_35_Y_div_84_31_g3752__7098
*1106 rem_96_35_Y_div_84_31_g3753__6131
*1107 rem_96_35_Y_div_84_31_g3754__1881
*1108 rem_96_35_Y_div_84_31_g3755__5115
*1109 rem_96_35_Y_div_84_31_g3756__7482
*1110 rem_96_35_Y_div_84_31_g3757__4733
*1111 rem_96_35_Y_div_84_31_g3758__6161
*1112 rem_96_35_Y_div_84_31_g3759__9315
*1113 rem_96_35_Y_div_84_31_g3760__9945
*1114 rem_96_35_Y_div_84_31_g3761__2883
*1115 rem_96_35_Y_div_84_31_g3762
*1116 rem_96_35_Y_div_84_31_g3763__2346
*1117 rem_96_35_Y_div_84_31_g3765__7410
*1118 rem_96_35_Y_div_84_31_g3766__6417
*1119 rem_96_35_Y_div_84_31_g3767__5477
*1120 rem_96_35_Y_div_84_31_g3768__2398
*1121 rem_96_35_Y_div_84_31_g3769__5107
*1122 rem_96_35_Y_div_84_31_g3770__6260
*1123 rem_96_35_Y_div_84_31_g3771__4319
*1124 rem_96_35_Y_div_84_31_g3772__8428
*1125 rem_96_35_Y_div_84_31_g3773__5526
*1126 rem_96_35_Y_div_84_31_g3774__6783
*1127 rem_96_35_Y_div_84_31_g3776__3680
*1128 rem_96_35_Y_div_84_31_g3777__1617
*1129 rem_96_35_Y_div_84_31_g3778
*1130 rem_96_35_Y_div_84_31_g3779__2802
*1131 rem_96_35_Y_div_84_31_g3780
*1132 rem_96_35_Y_div_84_31_g3781__1705
*1133 rem_96_35_Y_div_84_31_g3782
*1134 rem_96_35_Y_div_84_31_g3783__5122
*1135 rem_96_35_Y_div_84_31_g3784__8246
*1136 rem_96_35_Y_div_84_31_g3785
*1137 rem_96_35_Y_div_84_31_g3786__7098
*1138 rem_96_35_Y_div_84_31_g3787__6131
*1139 rem_96_35_Y_div_84_31_g3788
*1140 rem_96_35_Y_div_84_31_g3789__1881
*1141 rem_96_35_Y_div_84_31_g3790__5115
*1142 rem_96_35_Y_div_84_31_g3791__7482
*1143 rem_96_35_Y_div_84_31_g3792__4733
*1144 rem_96_35_Y_div_84_31_g3794__6161
*1145 rem_96_35_Y_div_84_31_g3795__9315
*1146 rem_96_35_Y_div_84_31_g3796__9945
*1147 rem_96_35_Y_div_84_31_g3797
*1148 rem_96_35_Y_div_84_31_g3798__2883
*1149 rem_96_35_Y_div_84_31_g3799__2346
*1150 rem_96_35_Y_div_84_31_g3800__1666
*1151 rem_96_35_Y_div_84_31_g3801__7410
*1152 rem_96_35_Y_div_84_31_g3802__6417
*1153 rem_96_35_Y_div_84_31_g3803__5477
*1154 rem_96_35_Y_div_84_31_g3804__2398
*1155 rem_96_35_Y_div_84_31_g3805__5107
*1156 rem_96_35_Y_div_84_31_g3806__6260
*1157 rem_96_35_Y_div_84_31_g3807__4319
*1158 rem_96_35_Y_div_84_31_g3808
*1159 rem_96_35_Y_div_84_31_g3810
*1160 rem_96_35_Y_div_84_31_g3811__5526
*1161 rem_96_35_Y_div_84_31_g3812__6783
*1162 rem_96_35_Y_div_84_31_g3814
*1163 rem_96_35_Y_div_84_31_g3815__1617
*1164 rem_96_35_Y_div_84_31_g3816__2802
*1165 rem_96_35_Y_div_84_31_g3817__1705
*1166 rem_96_35_Y_div_84_31_g3818__5122
*1167 rem_96_35_Y_div_84_31_g3819__8246
*1168 rem_96_35_Y_div_84_31_g3821__7098
*1169 rem_96_35_Y_div_84_31_g3822__6131
*1170 rem_96_35_Y_div_84_31_g3824
*1171 rem_96_35_Y_div_84_31_g3826__5115
*1172 rem_96_35_Y_div_84_31_g3828__7482
*1173 rem_96_35_Y_div_84_31_g3829__4733
*1174 rem_96_35_Y_div_84_31_g3830__6161
*1175 rem_96_35_Y_div_84_31_g3831__9315
*1176 rem_96_35_Y_div_84_31_g3832__9945
*1177 rem_96_35_Y_div_84_31_g3834__2883
*1178 rem_96_35_Y_div_84_31_g3835__2346
*1179 rem_96_35_Y_div_84_31_g3837__7410
*1180 rem_96_35_Y_div_84_31_g3838
*1181 rem_96_35_Y_div_84_31_g3839__6417
*1182 rem_96_35_Y_div_84_31_g3842__5477
*1183 rem_96_35_Y_div_84_31_g3843__2398
*1184 rem_96_35_Y_div_84_31_g3844
*1185 rem_96_35_Y_div_84_31_g3845__5107
*1186 rem_96_35_Y_div_84_31_g3846
*1187 rem_96_35_Y_div_84_31_g3847__6260
*1188 rem_96_35_Y_div_84_31_g3848__4319
*1189 rem_96_35_Y_div_84_31_g3849__8428
*1190 rem_96_35_Y_div_84_31_g3850
*1191 rem_96_35_Y_div_84_31_g3851__5526
*1192 rem_96_35_Y_div_84_31_g3852__6783
*1193 rem_96_35_Y_div_84_31_g3853__3680
*1194 rem_96_35_Y_div_84_31_g3854__1617
*1195 rem_96_35_Y_div_84_31_g3855__2802
*1196 rem_96_35_Y_div_84_31_g3856
*1197 rem_96_35_Y_div_84_31_g3857__1705
*1198 rem_96_35_Y_div_84_31_g3858
*1199 rem_96_35_Y_div_84_31_g3859__5122
*1200 rem_96_35_Y_div_84_31_g3860__8246
*1201 rem_96_35_Y_div_84_31_g3861__7098
*1202 rem_96_35_Y_div_84_31_g3862
*1203 rem_96_35_Y_div_84_31_g3863__6131
*1204 rem_96_35_Y_div_84_31_g3864__1881
*1205 rem_96_35_Y_div_84_31_g3865__5115
*1206 rem_96_35_Y_div_84_31_g3866__7482
*1207 rem_96_35_Y_div_84_31_g3867__4733
*1208 rem_96_35_Y_div_84_31_g3868__6161
*1209 rem_96_35_Y_div_84_31_g3869
*1210 rem_96_35_Y_div_84_31_g3870__9315
*1211 rem_96_35_Y_div_84_31_g3872__2883
*1212 rem_96_35_Y_div_84_31_g3873__2346
*1213 rem_96_35_Y_div_84_31_g3874__1666
*1214 rem_96_35_Y_div_84_31_g3875
*1215 rem_96_35_Y_div_84_31_g3876__7410
*1216 rem_96_35_Y_div_84_31_g3878__5477
*1217 rem_96_35_Y_div_84_31_g3880__5107
*1218 rem_96_35_Y_div_84_31_g3881__6260
*1219 rem_96_35_Y_div_84_31_g3882
*1220 rem_96_35_Y_div_84_31_g3883__4319
*1221 rem_96_35_Y_div_84_31_g3885
*1222 rem_96_35_Y_div_84_31_g3886__8428